<?xml version="1.0" encoding="UTF-8"?>

<!-- generated on 08/12/19 13:15:06 by Eclipse SUMO netedit Version 1.2.0
<configuration xmlns:xsi="http://www.w3.org/2001/XMLSchema-instance" xsi:noNamespaceSchemaLocation="http://sumo.dlr.de/xsd/netconvertConfiguration.xsd">

    <input>
        <sumo-net-file value="C:\Users\Aquavirus\Desktop\SUMO\2\mine.net.xml"/>
    </input>

    <output>
        <output-file value="C:\Users\Aquavirus\Desktop\SUMO\2\mine.net.xml"/>
    </output>

    <processing>
        <geometry.max-grade.fix value="false"/>
        <offset.disable-normalization value="true"/>
        <lefthand value="false"/>
    </processing>

    <junctions>
        <no-turnarounds value="true"/>
        <junctions.corner-detail value="5"/>
        <junctions.limit-turn-speed value="5.5"/>
        <rectangular-lane-cut value="false"/>
    </junctions>

    <pedestrian>
        <walkingareas value="false"/>
    </pedestrian>

    <netedit>
        <additional-files value="C:\Users\Aquavirus\Desktop\SUMO\2\mine.add1.xml"/>
    </netedit>

</configuration>
-->

<net version="1.1" junctionCornerDetail="5" limitTurnSpeed="5.50" xmlns:xsi="http://www.w3.org/2001/XMLSchema-instance" xsi:noNamespaceSchemaLocation="http://sumo.dlr.de/xsd/net_file.xsd">

    <location netOffset="0.00,0.00" convBoundary="-300.00,-300.00,300.00,300.00" origBoundary="-10000000000.00,-10000000000.00,10000000000.00,10000000000.00" projParameter="!"/>

    <edge id=":C0_0" function="internal">
        <lane id=":C0_0_0" index="0" speed="4.69" length="4.19" shape="-8.00,10.60 -8.16,9.46 -8.65,8.65 -9.46,8.16 -10.60,8.00"/>
    </edge>
    <edge id=":C0_1" function="internal">
        <lane id=":C0_1_0" index="0" speed="13.89" length="21.20" shape="-8.00,10.60 -8.00,-10.60"/>
        <lane id=":C0_1_1" index="1" speed="13.89" length="21.20" shape="-4.80,10.60 -4.80,-10.60"/>
        <lane id=":C0_1_2" index="2" speed="13.89" length="21.20" shape="-1.60,10.60 -1.60,-10.60"/>
    </edge>
    <edge id=":C0_4" function="internal">
        <lane id=":C0_4_0" index="0" speed="9.33" length="7.02" shape="-1.60,10.60 -0.84,5.26 -0.00,3.87"/>
    </edge>
    <edge id=":C0_20" function="internal">
        <lane id=":C0_20_0" index="0" speed="9.33" length="12.66" shape="-0.00,3.87 1.45,1.45 5.26,-0.84 10.60,-1.60"/>
    </edge>
    <edge id=":C0_5" function="internal">
        <lane id=":C0_5_0" index="0" speed="4.69" length="4.19" shape="10.60,8.00 9.46,8.16 8.65,8.65 8.16,9.46 8.00,10.60"/>
    </edge>
    <edge id=":C0_6" function="internal">
        <lane id=":C0_6_0" index="0" speed="13.89" length="21.20" shape="10.60,8.00 -10.60,8.00"/>
        <lane id=":C0_6_1" index="1" speed="13.89" length="21.20" shape="10.60,4.80 -10.60,4.80"/>
        <lane id=":C0_6_2" index="2" speed="13.89" length="21.20" shape="10.60,1.60 -10.60,1.60"/>
    </edge>
    <edge id=":C0_9" function="internal">
        <lane id=":C0_9_0" index="0" speed="9.33" length="7.02" shape="10.60,1.60 5.26,0.84 3.87,0.00"/>
    </edge>
    <edge id=":C0_21" function="internal">
        <lane id=":C0_21_0" index="0" speed="9.33" length="12.66" shape="3.87,0.00 1.45,-1.45 -0.84,-5.26 -1.60,-10.60"/>
    </edge>
    <edge id=":C0_10" function="internal">
        <lane id=":C0_10_0" index="0" speed="4.69" length="4.19" shape="8.00,-10.60 8.16,-9.46 8.65,-8.65 9.46,-8.16 10.60,-8.00"/>
    </edge>
    <edge id=":C0_11" function="internal">
        <lane id=":C0_11_0" index="0" speed="13.89" length="21.20" shape="8.00,-10.60 8.00,10.60"/>
        <lane id=":C0_11_1" index="1" speed="13.89" length="21.20" shape="4.80,-10.60 4.80,10.60"/>
        <lane id=":C0_11_2" index="2" speed="13.89" length="21.20" shape="1.60,-10.60 1.60,10.60"/>
    </edge>
    <edge id=":C0_14" function="internal">
        <lane id=":C0_14_0" index="0" speed="9.33" length="7.02" shape="1.60,-10.60 0.84,-5.26 0.00,-3.87"/>
    </edge>
    <edge id=":C0_22" function="internal">
        <lane id=":C0_22_0" index="0" speed="9.33" length="12.66" shape="0.00,-3.87 -1.45,-1.45 -5.26,0.84 -10.60,1.60"/>
    </edge>
    <edge id=":C0_15" function="internal">
        <lane id=":C0_15_0" index="0" speed="4.69" length="4.19" shape="-10.60,-8.00 -9.46,-8.16 -8.65,-8.65 -8.16,-9.46 -8.00,-10.60"/>
    </edge>
    <edge id=":C0_16" function="internal">
        <lane id=":C0_16_0" index="0" speed="13.89" length="21.20" shape="-10.60,-8.00 10.60,-8.00"/>
        <lane id=":C0_16_1" index="1" speed="13.89" length="21.20" shape="-10.60,-4.80 10.60,-4.80"/>
        <lane id=":C0_16_2" index="2" speed="13.89" length="21.20" shape="-10.60,-1.60 10.60,-1.60"/>
    </edge>
    <edge id=":C0_19" function="internal">
        <lane id=":C0_19_0" index="0" speed="9.33" length="7.02" shape="-10.60,-1.60 -5.26,-0.84 -3.87,-0.00"/>
    </edge>
    <edge id=":C0_23" function="internal">
        <lane id=":C0_23_0" index="0" speed="9.33" length="12.66" shape="-3.87,-0.00 -1.45,1.45 0.84,5.26 1.60,10.60"/>
    </edge>

    <edge id="E0_In" from="E0" to="C0" priority="-1">
        <lane id="E0_In_0" index="0" speed="13.89" length="289.40" shape="300.00,8.00 10.60,8.00"/>
        <lane id="E0_In_1" index="1" speed="13.89" length="289.40" shape="300.00,4.80 10.60,4.80"/>
        <lane id="E0_In_2" index="2" speed="13.89" length="289.40" shape="300.00,1.60 10.60,1.60"/>
    </edge>
    <edge id="E0_Out" from="C0" to="E0" priority="-1">
        <lane id="E0_Out_0" index="0" speed="13.89" length="289.40" shape="10.60,-8.00 300.00,-8.00"/>
        <lane id="E0_Out_1" index="1" speed="13.89" length="289.40" shape="10.60,-4.80 300.00,-4.80"/>
        <lane id="E0_Out_2" index="2" speed="13.89" length="289.40" shape="10.60,-1.60 300.00,-1.60"/>
    </edge>
    <edge id="N0_In" from="N0" to="C0" priority="-1">
        <lane id="N0_In_0" index="0" speed="13.89" length="289.40" shape="-8.00,300.00 -8.00,10.60"/>
        <lane id="N0_In_1" index="1" speed="13.89" length="289.40" shape="-4.80,300.00 -4.80,10.60"/>
        <lane id="N0_In_2" index="2" speed="13.89" length="289.40" shape="-1.60,300.00 -1.60,10.60"/>
    </edge>
    <edge id="N_Out" from="C0" to="N0" priority="-1">
        <lane id="N_Out_0" index="0" speed="13.89" length="289.40" shape="8.00,10.60 8.00,300.00"/>
        <lane id="N_Out_1" index="1" speed="13.89" length="289.40" shape="4.80,10.60 4.80,300.00"/>
        <lane id="N_Out_2" index="2" speed="13.89" length="289.40" shape="1.60,10.60 1.60,300.00"/>
    </edge>
    <edge id="S0_In" from="S0" to="C0" priority="-1">
        <lane id="S0_In_0" index="0" speed="13.89" length="289.40" shape="8.00,-300.00 8.00,-10.60"/>
        <lane id="S0_In_1" index="1" speed="13.89" length="289.40" shape="4.80,-300.00 4.80,-10.60"/>
        <lane id="S0_In_2" index="2" speed="13.89" length="289.40" shape="1.60,-300.00 1.60,-10.60"/>
    </edge>
    <edge id="S0_Out" from="C0" to="S0" priority="-1">
        <lane id="S0_Out_0" index="0" speed="13.89" length="289.40" shape="-8.00,-10.60 -8.00,-300.00"/>
        <lane id="S0_Out_1" index="1" speed="13.89" length="289.40" shape="-4.80,-10.60 -4.80,-300.00"/>
        <lane id="S0_Out_2" index="2" speed="13.89" length="289.40" shape="-1.60,-10.60 -1.60,-300.00"/>
    </edge>
    <edge id="W0_In" from="W0" to="C0" priority="-1">
        <lane id="W0_In_0" index="0" speed="13.89" length="289.40" shape="-300.00,-8.00 -10.60,-8.00"/>
        <lane id="W0_In_1" index="1" speed="13.89" length="289.40" shape="-300.00,-4.80 -10.60,-4.80"/>
        <lane id="W0_In_2" index="2" speed="13.89" length="289.40" shape="-300.00,-1.60 -10.60,-1.60"/>
    </edge>
    <edge id="W0_Out" from="C0" to="W0" priority="-1">
        <lane id="W0_Out_0" index="0" speed="13.89" length="289.40" shape="-10.60,8.00 -300.00,8.00"/>
        <lane id="W0_Out_1" index="1" speed="13.89" length="289.40" shape="-10.60,4.80 -300.00,4.80"/>
        <lane id="W0_Out_2" index="2" speed="13.89" length="289.40" shape="-10.60,1.60 -300.00,1.60"/>
    </edge>

    <tlLogic id="gneJ0" type="static" programID="0" offset="0">
        <phase duration="31" state="GGGGgrrrrrGGGGgrrrrr"/>
        <phase duration="3"  state="yyyyyrrrrryyyyyrrrrr"/>
        <phase duration="31" state="rrrrrGGGGgrrrrrGGGGg"/>
        <phase duration="3"  state="rrrrryyyyyrrrrryyyyy"/> 
    </tlLogic>

    <junction id="C0" type="traffic_light" x="0.00" y="0.00" incLanes="N0_In_0 N0_In_1 N0_In_2 E0_In_0 E0_In_1 E0_In_2 S0_In_0 S0_In_1 S0_In_2 W0_In_0 W0_In_1 W0_In_2" intLanes=":C0_0_0 :C0_1_0 :C0_1_1 :C0_1_2 :C0_20_0 :C0_5_0 :C0_6_0 :C0_6_1 :C0_6_2 :C0_21_0 :C0_10_0 :C0_11_0 :C0_11_1 :C0_11_2 :C0_22_0 :C0_15_0 :C0_16_0 :C0_16_1 :C0_16_2 :C0_23_0" shape="-10.60,9.60 -9.60,10.60 9.60,10.60 10.60,9.60 10.60,-9.60 9.60,-10.60 -9.60,-10.60 -10.60,-9.60" customShape="1">
        <request index="0"  response="00000000000000000000" foes="00000000000111000000" cont="0"/>
        <request index="1"  response="10000000001000000000" foes="11111100001111000000" cont="0"/>
        <request index="2"  response="10000000001000000000" foes="11111100001111000000" cont="0"/>
        <request index="3"  response="10000000001000000000" foes="11111100001111000000" cont="0"/>
        <request index="4"  response="10000011101000000000" foes="11110011101111000000" cont="1"/>
        <request index="5"  response="00000011100000000000" foes="00000011100000000000" cont="0"/>
        <request index="6"  response="00000111100000011111" foes="10000111100000011111" cont="0"/>
        <request index="7"  response="00000111100000011111" foes="10000111100000011111" cont="0"/>
        <request index="8"  response="00000111100000011111" foes="10000111100000011111" cont="0"/>
        <request index="9"  response="01110111100000011110" foes="01110111100000011110" cont="1"/>
        <request index="10" response="00000000000000000000" foes="01110000000000000000" cont="0"/>
        <request index="11" response="10000000001000000000" foes="11110000001111110000" cont="0"/>
        <request index="12" response="10000000001000000000" foes="11110000001111110000" cont="0"/>
        <request index="13" response="10000000001000000000" foes="11110000001111110000" cont="0"/>
        <request index="14" response="10000000001000001110" foes="11110000001111001110" cont="1"/>
        <request index="15" response="00000000000000001110" foes="00000000000000001110" cont="0"/>
        <request index="16" response="00000111110000011110" foes="00000111111000011110" cont="0"/>
        <request index="17" response="00000111110000011110" foes="00000111111000011110" cont="0"/>
        <request index="18" response="00000111110000011110" foes="00000111111000011110" cont="0"/>
        <request index="19" response="00000111100111011110" foes="00000111100111011110" cont="1"/>
    </junction>
    <junction id="E0" type="dead_end" x="300.00" y="0.00" incLanes="E0_Out_0 E0_Out_1 E0_Out_2" intLanes="" shape="300.00,0.00 300.00,-9.60 300.00,0.00"/>
    <junction id="N0" type="dead_end" x="0.00" y="300.00" incLanes="N_Out_0 N_Out_1 N_Out_2" intLanes="" shape="0.00,300.00 9.60,300.00 0.00,300.00"/>
    <junction id="S0" type="dead_end" x="0.00" y="-300.00" incLanes="S0_Out_0 S0_Out_1 S0_Out_2" intLanes="" shape="0.00,-300.00 -9.60,-300.00 0.00,-300.00"/>
    <junction id="W0" type="dead_end" x="-300.00" y="0.00" incLanes="W0_Out_0 W0_Out_1 W0_Out_2" intLanes="" shape="-300.00,0.00 -300.00,9.60 -300.00,0.00"/>

    <junction id=":C0_20_0" type="internal" x="-0.00" y="3.87" incLanes=":C0_4_0 S0_In_0 S0_In_1 S0_In_2" intLanes=":C0_6_0 :C0_6_1 :C0_6_2 :C0_9_0 :C0_10_0 :C0_11_0 :C0_11_1 :C0_11_2 :C0_16_0 :C0_16_1 :C0_16_2 :C0_19_0"/>
    <junction id=":C0_21_0" type="internal" x="3.87" y="0.00" incLanes=":C0_9_0 W0_In_0 W0_In_1 W0_In_2" intLanes=":C0_1_0 :C0_1_1 :C0_1_2 :C0_4_0 :C0_11_0 :C0_11_1 :C0_11_2 :C0_14_0 :C0_15_0 :C0_16_0 :C0_16_1 :C0_16_2"/>
    <junction id=":C0_22_0" type="internal" x="0.00" y="-3.87" incLanes=":C0_14_0 N0_In_0 N0_In_1 N0_In_2" intLanes=":C0_0_0 :C0_1_0 :C0_1_1 :C0_1_2 :C0_6_0 :C0_6_1 :C0_6_2 :C0_9_0 :C0_16_0 :C0_16_1 :C0_16_2 :C0_19_0"/>
    <junction id=":C0_23_0" type="internal" x="-3.87" y="-0.00" incLanes=":C0_19_0 E0_In_0 E0_In_1 E0_In_2" intLanes=":C0_1_0 :C0_1_1 :C0_1_2 :C0_4_0 :C0_5_0 :C0_6_0 :C0_6_1 :C0_6_2 :C0_11_0 :C0_11_1 :C0_11_2 :C0_14_0"/>

    <connection from="E0_In" to="N_Out" fromLane="0" toLane="0" via=":C0_5_0" tl="gneJ0" linkIndex="5" dir="r" state="o"/>
    <connection from="E0_In" to="W0_Out" fromLane="0" toLane="0" via=":C0_6_0" tl="gneJ0" linkIndex="6" dir="s" state="o"/>
    <connection from="E0_In" to="W0_Out" fromLane="1" toLane="1" via=":C0_6_1" tl="gneJ0" linkIndex="7" dir="s" state="o"/>
    <connection from="E0_In" to="W0_Out" fromLane="2" toLane="2" via=":C0_6_2" tl="gneJ0" linkIndex="8" dir="s" state="o"/>
    <connection from="E0_In" to="S0_Out" fromLane="2" toLane="2" via=":C0_9_0" tl="gneJ0" linkIndex="9" dir="l" state="o"/>
    <connection from="N0_In" to="W0_Out" fromLane="0" toLane="0" via=":C0_0_0" tl="gneJ0" linkIndex="0" dir="r" state="O"/>
    <connection from="N0_In" to="S0_Out" fromLane="0" toLane="0" via=":C0_1_0" tl="gneJ0" linkIndex="1" dir="s" state="O"/>
    <connection from="N0_In" to="S0_Out" fromLane="1" toLane="1" via=":C0_1_1" tl="gneJ0" linkIndex="2" dir="s" state="O"/>
    <connection from="N0_In" to="S0_Out" fromLane="2" toLane="2" via=":C0_1_2" tl="gneJ0" linkIndex="3" dir="s" state="O"/>
    <connection from="N0_In" to="E0_Out" fromLane="2" toLane="2" via=":C0_4_0" tl="gneJ0" linkIndex="4" dir="l" state="o"/>
    <connection from="S0_In" to="E0_Out" fromLane="0" toLane="0" via=":C0_10_0" tl="gneJ0" linkIndex="10" dir="r" state="O"/>
    <connection from="S0_In" to="N_Out" fromLane="0" toLane="0" via=":C0_11_0" tl="gneJ0" linkIndex="11" dir="s" state="O"/>
    <connection from="S0_In" to="N_Out" fromLane="1" toLane="1" via=":C0_11_1" tl="gneJ0" linkIndex="12" dir="s" state="O"/>
    <connection from="S0_In" to="N_Out" fromLane="2" toLane="2" via=":C0_11_2" tl="gneJ0" linkIndex="13" dir="s" state="O"/>
    <connection from="S0_In" to="W0_Out" fromLane="2" toLane="2" via=":C0_14_0" tl="gneJ0" linkIndex="14" dir="l" state="o"/>
    <connection from="W0_In" to="S0_Out" fromLane="0" toLane="0" via=":C0_15_0" tl="gneJ0" linkIndex="15" dir="r" state="o"/>
    <connection from="W0_In" to="E0_Out" fromLane="0" toLane="0" via=":C0_16_0" tl="gneJ0" linkIndex="16" dir="s" state="o"/>
    <connection from="W0_In" to="E0_Out" fromLane="1" toLane="1" via=":C0_16_1" tl="gneJ0" linkIndex="17" dir="s" state="o"/>
    <connection from="W0_In" to="E0_Out" fromLane="2" toLane="2" via=":C0_16_2" tl="gneJ0" linkIndex="18" dir="s" state="o"/>
    <connection from="W0_In" to="N_Out" fromLane="2" toLane="2" via=":C0_19_0" tl="gneJ0" linkIndex="19" dir="l" state="o"/>

    <connection from=":C0_0" to="W0_Out" fromLane="0" toLane="0" dir="r" state="M"/>
    <connection from=":C0_1" to="S0_Out" fromLane="0" toLane="0" dir="s" state="M"/>
    <connection from=":C0_1" to="S0_Out" fromLane="1" toLane="1" dir="s" state="M"/>
    <connection from=":C0_1" to="S0_Out" fromLane="2" toLane="2" dir="s" state="M"/>
    <connection from=":C0_4" to="E0_Out" fromLane="0" toLane="2" via=":C0_20_0" dir="l" state="m"/>
    <connection from=":C0_20" to="E0_Out" fromLane="0" toLane="2" dir="l" state="M"/>
    <connection from=":C0_5" to="N_Out" fromLane="0" toLane="0" dir="r" state="M"/>
    <connection from=":C0_6" to="W0_Out" fromLane="0" toLane="0" dir="s" state="M"/>
    <connection from=":C0_6" to="W0_Out" fromLane="1" toLane="1" dir="s" state="M"/>
    <connection from=":C0_6" to="W0_Out" fromLane="2" toLane="2" dir="s" state="M"/>
    <connection from=":C0_9" to="S0_Out" fromLane="0" toLane="2" via=":C0_21_0" dir="l" state="m"/>
    <connection from=":C0_21" to="S0_Out" fromLane="0" toLane="2" dir="l" state="M"/>
    <connection from=":C0_10" to="E0_Out" fromLane="0" toLane="0" dir="r" state="M"/>
    <connection from=":C0_11" to="N_Out" fromLane="0" toLane="0" dir="s" state="M"/>
    <connection from=":C0_11" to="N_Out" fromLane="1" toLane="1" dir="s" state="M"/>
    <connection from=":C0_11" to="N_Out" fromLane="2" toLane="2" dir="s" state="M"/>
    <connection from=":C0_14" to="W0_Out" fromLane="0" toLane="2" via=":C0_22_0" dir="l" state="m"/>
    <connection from=":C0_22" to="W0_Out" fromLane="0" toLane="2" dir="l" state="M"/>
    <connection from=":C0_15" to="S0_Out" fromLane="0" toLane="0" dir="r" state="M"/>
    <connection from=":C0_16" to="E0_Out" fromLane="0" toLane="0" dir="s" state="M"/>
    <connection from=":C0_16" to="E0_Out" fromLane="1" toLane="1" dir="s" state="M"/>
    <connection from=":C0_16" to="E0_Out" fromLane="2" toLane="2" dir="s" state="M"/>
    <connection from=":C0_19" to="N_Out" fromLane="0" toLane="2" via=":C0_23_0" dir="l" state="m"/>
    <connection from=":C0_23" to="N_Out" fromLane="0" toLane="2" dir="l" state="M"/>

</net>
