<?xml version="1.0" encoding="UTF-8"?>
<additional>
    <tlLogic id="gneJ0" type="static" programID="a" offset="0">
        <phase duration="31" state="GGGGgrrrrrGGGGgrrrrr"/>
        <phase duration="3" state="yyyyyrrrrryyyyyrrrrr"/>
        <phase duration="31" state="rrrrrGGGGgrrrrrGGGGg"/>
        <phase duration="3" state="rrrrryyyyyrrrrryyyyy"/>
    </tlLogic>
</additional>
